<?xml version="1.0" encoding="UTF-8"?>

<!-- generated on 2025-12-04 13:35:01 by Eclipse SUMO netedit Version 1.24.0
<neteditConfiguration xmlns:xsi="http://www.w3.org/2001/XMLSchema-instance" xsi:noNamespaceSchemaLocation="http://sumo.dlr.de/xsd/neteditConfiguration.xsd">

    <input>
        <sumocfg-file value="C:\Users\Lenovo\Desktop\multi_agents\sumo_files\RL.sumocfg"/>
        <additional-files value="C:\Users\Lenovo\Desktop\multi_agents\sumo_files\RL.add.xml"/>
        <sumo-net-file value="C:\Users\Lenovo\Desktop\multi_agents\sumo_files\RL.net.xml"/>
    </input>

    <output>
        <output-file value="C:\Users\Lenovo\Desktop\multi_agents\sumo_files\RL.net.xml"/>
    </output>

    <processing>
        <geometry.min-radius.fix.railways value="false"/>
        <geometry.avoid-overlap value="false"/>
        <geometry.max-grade.fix value="false"/>
        <offset.disable-normalization value="true"/>
        <lefthand value="0"/>
    </processing>

    <junctions>
        <no-turnarounds value="true"/>
        <junctions.corner-detail value="5"/>
        <junctions.limit-turn-speed value="5.50"/>
        <rectangular-lane-cut value="0"/>
    </junctions>

    <pedestrian>
        <walkingareas value="0"/>
    </pedestrian>

    <netedit>
        <ignore.routeelements value="false"/>
    </netedit>

</neteditConfiguration>
-->

<net version="1.20" junctionCornerDetail="5" limitTurnSpeed="5.50" avoidOverlap="0" xmlns:xsi="http://www.w3.org/2001/XMLSchema-instance" xsi:noNamespaceSchemaLocation="http://sumo.dlr.de/xsd/net_file.xsd">

    <location netOffset="0.00,0.00" convBoundary="-74.98,-50.58,202.35,95.33" origBoundary="-10000000000.00,-10000000000.00,10000000000.00,10000000000.00" projParameter="!"/>

    <edge id=":J3_0" function="internal">
        <lane id=":J3_0_0" index="0" speed="13.89" length="12.69" shape="-37.46,80.33 -37.80,67.64"/>
    </edge>
    <edge id=":J3_1" function="internal">
        <lane id=":J3_1_0" index="0" speed="6.92" length="10.29" shape="-37.46,80.33 -37.16,77.21 -36.15,74.97 -34.43,73.59 -31.99,73.09"/>
    </edge>
    <edge id=":J3_2" function="internal">
        <lane id=":J3_2_0" index="0" speed="6.78" length="10.23" shape="-43.22,74.72 -40.76,74.30 -39.03,72.98 -38.04,70.76 -37.80,67.64"/>
    </edge>
    <edge id=":J3_3" function="internal">
        <lane id=":J3_3_0" index="0" speed="13.89" length="11.38" shape="-43.22,74.72 -40.06,74.50 -37.61,73.97 -35.15,73.40 -31.99,73.09"/>
    </edge>
    <edge id=":J3_4" function="internal">
        <lane id=":J3_4_0" index="0" speed="6.78" length="10.23" shape="-43.22,74.72 -40.76,74.30 -39.03,72.98 -38.04,70.76 -37.80,67.64"/>
    </edge>
    <edge id=":J3_5" function="internal">
        <lane id=":J3_5_0" index="0" speed="13.89" length="11.38" shape="-43.22,74.72 -40.06,74.50 -37.61,73.97 -35.15,73.40 -31.99,73.09"/>
    </edge>
    <edge id=":Node1_0" function="internal">
        <lane id=":Node1_0_0" index="0" speed="11.12" length="28.56" shape="-64.41,20.99 -72.19,20.04 -77.77,16.82 -81.16,11.34 -82.36,3.60"/>
        <lane id=":Node1_0_1" index="1" speed="10.10" length="23.37" shape="-64.47,17.79 -70.84,17.01 -75.41,14.38 -78.18,9.90 -79.16,3.56"/>
        <lane id=":Node1_0_2" index="2" speed="8.96" length="18.17" shape="-64.54,14.59 -69.49,13.99 -73.04,11.94 -75.20,8.45 -75.96,3.53"/>
    </edge>
    <edge id=":Node1_3" function="internal">
        <lane id=":Node1_3_0" index="0" speed="3.90" length="2.60" shape="-66.36,3.42 -66.25,4.12 -65.95,4.62 -65.44,4.91 -64.73,5.00"/>
        <lane id=":Node1_3_1" index="1" speed="6.08" length="7.79" shape="-69.56,3.45 -69.24,5.56 -68.31,7.06 -66.79,7.94 -64.67,8.20"/>
        <lane id=":Node1_3_2" index="2" speed="7.65" length="12.98" shape="-72.76,3.49 -72.22,7.01 -70.68,9.50 -68.14,10.96 -64.60,11.40"/>
    </edge>
    <edge id=":Node2_0" function="internal">
        <lane id=":Node2_0_0" index="0" speed="6.63" length="9.43" shape="-3.65,25.56 -4.06,23.04 -5.20,21.25 -7.07,20.20 -9.66,19.89"/>
    </edge>
    <edge id=":Node2_1" function="internal">
        <lane id=":Node2_1_0" index="0" speed="13.89" length="27.57" shape="-3.65,25.56 -4.63,-1.87"/>
        <lane id=":Node2_1_1" index="1" speed="13.89" length="27.57" shape="-0.45,25.51 -1.44,-2.04"/>
        <lane id=":Node2_1_2" index="2" speed="13.89" length="27.57" shape="2.75,25.45 1.76,-2.22"/>
    </edge>
    <edge id=":Node2_4" function="internal">
        <lane id=":Node2_4_0" index="0" speed="10.29" length="4.40" shape="2.75,25.45 3.31,21.08"/>
    </edge>
    <edge id=":Node2_20" function="internal">
        <lane id=":Node2_20_0" index="0" speed="10.29" length="20.41" shape="3.31,21.08 3.61,18.70 6.45,13.92 11.28,11.12 18.10,10.28"/>
    </edge>
    <edge id=":Node2_5" function="internal">
        <lane id=":Node2_5_0" index="0" speed="6.47" length="9.05" shape="17.91,19.67 15.44,20.01 13.69,21.06 12.66,22.82 12.35,25.28"/>
    </edge>
    <edge id=":Node2_6" function="internal">
        <lane id=":Node2_6_0" index="0" speed="13.89" length="27.70" shape="17.91,19.67 -9.66,19.89"/>
        <lane id=":Node2_6_1" index="1" speed="13.89" length="27.70" shape="17.98,16.47 -9.72,16.69"/>
        <lane id=":Node2_6_2" index="2" speed="13.89" length="27.70" shape="18.04,13.27 -9.79,13.49"/>
    </edge>
    <edge id=":Node2_9" function="internal">
        <lane id=":Node2_9_0" index="0" speed="10.76" length="3.45" shape="18.04,13.27 14.63,12.78"/>
    </edge>
    <edge id=":Node2_21" function="internal">
        <lane id=":Node2_21_0" index="0" speed="10.76" length="21.86" shape="14.63,12.78 11.23,12.28 6.25,9.37 3.09,4.53 1.76,-2.22"/>
    </edge>
    <edge id=":Node2_10" function="internal">
        <lane id=":Node2_10_0" index="0" speed="7.22" length="10.72" shape="11.34,-2.74 11.90,0.11 13.24,2.17 15.35,3.42 18.22,3.89"/>
    </edge>
    <edge id=":Node2_11" function="internal">
        <lane id=":Node2_11_0" index="0" speed="13.89" length="27.92" shape="11.34,-2.74 12.35,25.28"/>
        <lane id=":Node2_11_1" index="1" speed="13.89" length="27.92" shape="8.15,-2.56 9.15,25.34"/>
        <lane id=":Node2_11_2" index="2" speed="13.89" length="27.92" shape="4.95,-2.39 5.95,25.40"/>
    </edge>
    <edge id=":Node2_14" function="internal">
        <lane id=":Node2_14_0" index="0" speed="10.31" length="5.70" shape="4.95,-2.39 4.45,3.29"/>
    </edge>
    <edge id=":Node2_22" function="internal">
        <lane id=":Node2_22_0" index="0" speed="10.31" length="19.20" shape="4.45,3.29 4.35,4.44 1.69,9.36 -3.02,12.38 -9.79,13.49"/>
    </edge>
    <edge id=":Node2_15" function="internal">
        <lane id=":Node2_15_0" index="0" speed="6.43" length="9.03" shape="-9.98,3.89 -7.53,3.49 -5.82,2.40 -4.85,0.61 -4.63,-1.87"/>
    </edge>
    <edge id=":Node2_16" function="internal">
        <lane id=":Node2_16_0" index="0" speed="13.89" length="28.08" shape="-9.98,3.89 18.22,3.89"/>
        <lane id=":Node2_16_1" index="1" speed="13.89" length="28.08" shape="-9.92,7.09 18.16,7.09"/>
        <lane id=":Node2_16_2" index="2" speed="13.89" length="28.08" shape="-9.85,10.29 18.10,10.28"/>
    </edge>
    <edge id=":Node2_19" function="internal">
        <lane id=":Node2_19_0" index="0" speed="10.44" length="5.52" shape="-9.85,10.29 -4.37,10.96"/>
    </edge>
    <edge id=":Node2_23" function="internal">
        <lane id=":Node2_23_0" index="0" speed="10.44" length="19.43" shape="-4.37,10.96 -3.04,11.12 1.87,13.91 4.86,18.67 5.95,25.40"/>
    </edge>
    <edge id=":Node3_0" function="internal">
        <lane id=":Node3_0_0" index="0" speed="6.86" length="9.90" shape="124.54,21.55 121.78,21.95 119.79,23.07 118.57,24.91 118.12,27.49"/>
    </edge>
    <edge id=":Node3_1" function="internal">
        <lane id=":Node3_1_0" index="0" speed="13.89" length="27.81" shape="124.54,21.55 96.64,21.43"/>
        <lane id=":Node3_1_1" index="1" speed="13.89" length="27.81" shape="124.51,18.35 96.70,18.23"/>
        <lane id=":Node3_1_2" index="2" speed="13.89" length="27.81" shape="124.47,15.15 96.76,15.03"/>
    </edge>
    <edge id=":Node3_4" function="internal">
        <lane id=":Node3_4_0" index="0" speed="10.30" length="5.54" shape="124.47,15.15 118.98,14.42"/>
    </edge>
    <edge id=":Node3_20" function="internal">
        <lane id=":Node3_20_0" index="0" speed="10.30" length="19.49" shape="118.98,14.42 117.63,14.24 112.82,11.35 110.05,6.47 109.31,-0.40"/>
    </edge>
    <edge id=":Node3_5" function="internal">
        <lane id=":Node3_5_0" index="0" speed="6.41" length="9.04" shape="118.90,-0.06 119.17,2.42 120.17,4.18 121.90,5.23 124.37,5.55"/>
    </edge>
    <edge id=":Node3_6" function="internal">
        <lane id=":Node3_6_0" index="0" speed="13.89" length="27.60" shape="118.90,-0.06 118.12,27.49"/>
        <lane id=":Node3_6_1" index="1" speed="13.89" length="27.60" shape="115.70,-0.17 114.92,27.42"/>
        <lane id=":Node3_6_2" index="2" speed="13.89" length="27.60" shape="112.50,-0.28 111.72,27.35"/>
    </edge>
    <edge id=":Node3_9" function="internal">
        <lane id=":Node3_9_0" index="0" speed="10.51" length="4.92" shape="112.50,-0.28 111.66,4.57"/>
    </edge>
    <edge id=":Node3_21" function="internal">
        <lane id=":Node3_21_0" index="0" speed="10.51" length="20.03" shape="111.66,4.57 111.31,6.53 108.29,11.35 103.44,14.19 96.76,15.03"/>
    </edge>
    <edge id=":Node3_10" function="internal">
        <lane id=":Node3_10_0" index="0" speed="6.74" length="9.65" shape="96.95,5.43 99.48,5.10 101.31,3.98 102.46,2.07 102.91,-0.62"/>
    </edge>
    <edge id=":Node3_11" function="internal">
        <lane id=":Node3_11_0" index="0" speed="13.89" length="27.52" shape="96.95,5.43 124.37,5.55"/>
        <lane id=":Node3_11_1" index="1" speed="13.89" length="27.52" shape="96.89,8.63 124.41,8.75"/>
        <lane id=":Node3_11_2" index="2" speed="13.89" length="27.52" shape="96.83,11.83 124.44,11.95"/>
    </edge>
    <edge id=":Node3_14" function="internal">
        <lane id=":Node3_14_0" index="0" speed="10.36" length="4.55" shape="96.83,11.83 101.32,12.57"/>
    </edge>
    <edge id=":Node3_22" function="internal">
        <lane id=":Node3_22_0" index="0" speed="10.36" length="19.98" shape="101.32,12.57 103.46,12.91 108.16,15.86 110.91,20.67 111.72,27.35"/>
    </edge>
    <edge id=":Node3_15" function="internal">
        <lane id=":Node3_15_0" index="0" speed="6.50" length="9.03" shape="102.12,27.14 101.82,24.69 100.81,22.92 99.08,21.83 96.64,21.43"/>
    </edge>
    <edge id=":Node3_16" function="internal">
        <lane id=":Node3_16_0" index="0" speed="13.89" length="27.73" shape="102.12,27.14 102.91,-0.62"/>
        <lane id=":Node3_16_1" index="1" speed="13.89" length="27.73" shape="105.32,27.21 106.11,-0.51"/>
        <lane id=":Node3_16_2" index="2" speed="13.89" length="27.73" shape="108.52,27.28 109.31,-0.40"/>
    </edge>
    <edge id=":Node3_19" function="internal">
        <lane id=":Node3_19_0" index="0" speed="10.59" length="5.15" shape="108.52,27.28 109.37,22.20"/>
    </edge>
    <edge id=":Node3_23" function="internal">
        <lane id=":Node3_23_0" index="0" speed="10.59" length="19.88" shape="109.37,22.20 109.64,20.64 112.66,15.87 117.60,12.97 124.44,11.95"/>
    </edge>
    <edge id=":Node4_0" function="internal">
        <lane id=":Node4_0_0" index="0" speed="11.12" length="28.36" shape="-82.87,-39.93 -81.86,-47.63 -78.63,-53.17 -73.17,-56.54 -65.49,-57.73"/>
        <lane id=":Node4_0_1" index="1" speed="10.10" length="23.20" shape="-79.67,-39.97 -78.84,-46.27 -76.20,-50.80 -71.74,-53.55 -65.45,-54.53"/>
        <lane id=":Node4_0_2" index="2" speed="8.96" length="18.05" shape="-76.47,-40.00 -75.83,-44.91 -73.77,-48.43 -70.30,-50.57 -65.41,-51.33"/>
    </edge>
    <edge id=":Node4_3" function="internal">
        <lane id=":Node4_3_0" index="0" speed="3.90" length="2.58" shape="-65.29,-41.73 -65.99,-41.62 -66.48,-41.32 -66.78,-40.82 -66.87,-40.12"/>
        <lane id=":Node4_3_1" index="1" speed="6.08" length="7.73" shape="-65.33,-44.93 -67.42,-44.61 -68.91,-43.69 -69.79,-42.18 -70.07,-40.08"/>
        <lane id=":Node4_3_2" index="2" speed="7.66" length="12.89" shape="-65.37,-48.13 -68.86,-47.59 -71.34,-46.06 -72.81,-43.54 -73.27,-40.04"/>
    </edge>
    <edge id=":Node5_0" function="internal">
        <lane id=":Node5_0_0" index="0" speed="6.88" length="9.89" shape="-6.48,-35.92 -6.99,-38.79 -8.14,-40.82 -9.93,-42.03 -12.38,-42.41"/>
    </edge>
    <edge id=":Node5_1" function="internal">
        <lane id=":Node5_1_0" index="0" speed="11.28" length="30.67" shape="-3.29,-36.09 -2.54,-44.54 0.76,-50.55 6.62,-54.11 15.03,-55.22"/>
        <lane id=":Node5_1_1" index="1" speed="10.27" length="25.26" shape="-0.09,-36.27 0.52,-43.23 3.24,-48.17 8.07,-51.10 14.99,-52.02"/>
    </edge>
    <edge id=":Node5_3" function="internal">
        <lane id=":Node5_3_0" index="0" speed="6.37" length="9.04" shape="14.89,-42.42 12.41,-42.10 10.69,-41.05 9.71,-39.28 9.49,-36.79"/>
    </edge>
    <edge id=":Node5_4" function="internal">
        <lane id=":Node5_4_0" index="0" speed="13.89" length="27.34" shape="14.89,-42.42 -12.38,-42.41"/>
        <lane id=":Node5_4_1" index="1" speed="13.89" length="27.34" shape="14.92,-45.62 -12.42,-45.61"/>
        <lane id=":Node5_4_2" index="2" speed="13.89" length="27.34" shape="14.96,-48.82 -12.46,-48.81"/>
    </edge>
    <edge id=":Node5_7" function="internal">
        <lane id=":Node5_7_0" index="0" speed="13.89" length="27.57" shape="-12.58,-58.41 15.07,-58.42"/>
        <lane id=":Node5_7_1" index="1" speed="13.89" length="27.57" shape="-12.54,-55.21 15.03,-55.22"/>
        <lane id=":Node5_7_2" index="2" speed="13.89" length="27.57" shape="-12.50,-52.01 14.99,-52.02"/>
    </edge>
    <edge id=":Node5_10" function="internal">
        <lane id=":Node5_10_0" index="0" speed="11.11" length="6.38" shape="-12.50,-52.01 -6.16,-51.31"/>
        <lane id=":Node5_10_1" index="1" speed="10.60" length="5.14" shape="-12.50,-52.01 -7.41,-51.30"/>
    </edge>
    <edge id=":Node5_12" function="internal">
        <lane id=":Node5_12_0" index="0" speed="11.11" length="21.05" shape="-6.16,-51.31 -4.59,-51.13 1.17,-48.28 4.80,-43.44 6.30,-36.61"/>
        <lane id=":Node5_12_1" index="0" speed="10.60" length="19.76" shape="-7.41,-51.30 -6.00,-51.11 -1.23,-48.21 1.80,-43.32 3.10,-36.44"/>
    </edge>
    <edge id=":Node6_0" function="internal">
        <lane id=":Node6_0_0" index="0" speed="11.12" length="28.88" shape="102.88,-57.46 110.73,-56.24 116.25,-52.80 119.43,-47.14 120.28,-39.24"/>
        <lane id=":Node6_0_1" index="1" speed="10.09" length="23.63" shape="102.85,-54.26 109.27,-53.27 113.78,-50.45 116.39,-45.81 117.08,-39.35"/>
        <lane id=":Node6_0_2" index="2" speed="8.96" length="18.38" shape="102.81,-51.06 107.81,-50.29 111.32,-48.10 113.34,-44.49 113.88,-39.46"/>
    </edge>
    <edge id=":Node6_3" function="internal">
        <lane id=":Node6_3_0" index="0" speed="3.90" length="2.63" shape="104.29,-39.80 104.21,-40.52 103.92,-41.04 103.42,-41.35 102.71,-41.46"/>
        <lane id=":Node6_3_1" index="1" speed="6.07" length="7.88" shape="107.49,-39.69 107.26,-41.84 106.39,-43.39 104.88,-44.33 102.74,-44.66"/>
        <lane id=":Node6_3_2" index="2" speed="7.65" length="13.13" shape="110.68,-39.58 110.30,-43.17 108.85,-45.74 106.35,-47.31 102.78,-47.86"/>
    </edge>

    <edge id="-E0" from="J0" to="Node3" priority="-1">
        <lane id="-E0_0" index="0" speed="13.89" length="77.90" shape="202.43,20.74 124.54,21.55"/>
        <lane id="-E0_1" index="1" speed="13.89" length="77.90" shape="202.40,17.54 124.51,18.35"/>
        <lane id="-E0_2" index="2" speed="13.89" length="77.90" shape="202.37,14.34 124.47,15.15"/>
    </edge>
    <edge id="-E1" from="J2" to="J3" priority="-1" spreadType="center">
        <lane id="-E1_0" index="0" speed="13.89" length="29.19" shape="-72.41,74.45 -43.22,74.72"/>
    </edge>
    <edge id="-E2" from="Node6" to="Node3" priority="-1">
        <lane id="-E2_0" index="0" speed="13.89" length="39.21" shape="120.28,-39.24 118.90,-0.06"/>
        <lane id="-E2_1" index="1" speed="13.89" length="39.21" shape="117.08,-39.35 115.70,-0.17"/>
        <lane id="-E2_2" index="2" speed="13.89" length="39.21" shape="113.88,-39.46 112.50,-0.28"/>
    </edge>
    <edge id="-E3" from="Node5" to="Node6" priority="-1">
        <lane id="-E3_0" index="0" speed="13.89" length="87.82" shape="15.07,-58.42 102.88,-57.46"/>
        <lane id="-E3_1" index="1" speed="13.89" length="87.82" shape="15.03,-55.22 102.85,-54.26"/>
        <lane id="-E3_2" index="2" speed="13.89" length="87.82" shape="14.99,-52.02 102.81,-51.06"/>
    </edge>
    <edge id="-E4" from="Node4" to="Node5" priority="-1">
        <lane id="-E4_0" index="0" speed="13.89" length="52.92" shape="-65.49,-57.73 -12.58,-58.41"/>
        <lane id="-E4_1" index="1" speed="13.89" length="52.92" shape="-65.45,-54.53 -12.54,-55.21"/>
        <lane id="-E4_2" index="2" speed="13.89" length="52.92" shape="-65.41,-51.33 -12.50,-52.01"/>
    </edge>
    <edge id="-E5" from="Node1" to="Node4" priority="-1">
        <lane id="-E5_0" index="0" speed="13.89" length="43.53" shape="-82.36,3.60 -82.87,-39.93"/>
        <lane id="-E5_1" index="1" speed="13.89" length="43.53" shape="-79.16,3.56 -79.67,-39.97"/>
        <lane id="-E5_2" index="2" speed="13.89" length="43.53" shape="-75.96,3.53 -76.47,-40.00"/>
    </edge>
    <edge id="-E6" from="J1" to="Node3" priority="-1">
        <lane id="-E6_0" index="0" speed="13.89" length="56.22" shape="100.92,83.35 102.12,27.14"/>
        <lane id="-E6_1" index="1" speed="13.89" length="56.22" shape="104.12,83.42 105.32,27.21"/>
        <lane id="-E6_2" index="2" speed="13.89" length="56.22" shape="107.32,83.49 108.52,27.28"/>
    </edge>
    <edge id="-Node2_3_WB" from="Node2" to="Node3" priority="-1">
        <lane id="-Node2_3_WB_0" index="0" speed="13.89" length="78.74" shape="18.22,3.89 96.95,5.43"/>
        <lane id="-Node2_3_WB_1" index="1" speed="13.89" length="78.74" shape="18.16,7.09 96.89,8.63"/>
        <lane id="-Node2_3_WB_2" index="2" speed="13.89" length="78.74" shape="18.10,10.28 96.83,11.83"/>
    </edge>
    <edge id="E0" from="Node3" to="J0" priority="-1">
        <lane id="E0_0" index="0" speed="13.89" length="77.90" shape="124.37,5.55 202.27,4.74"/>
        <lane id="E0_1" index="1" speed="13.89" length="77.90" shape="124.41,8.75 202.30,7.94"/>
        <lane id="E0_2" index="2" speed="13.89" length="77.90" shape="124.44,11.95 202.33,11.14"/>
    </edge>
    <edge id="E1" from="J2" to="J3" priority="-1" spreadType="center">
        <lane id="E1_0" index="0" speed="13.89" length="29.19" shape="-72.41,74.45 -43.22,74.72"/>
    </edge>
    <edge id="E2" from="Node3" to="Node6" priority="-1">
        <lane id="E2_0" index="0" speed="13.89" length="39.21" shape="102.91,-0.62 104.29,-39.80"/>
        <lane id="E2_1" index="1" speed="13.89" length="39.21" shape="106.11,-0.51 107.49,-39.69"/>
        <lane id="E2_2" index="2" speed="13.89" length="39.21" shape="109.31,-0.40 110.68,-39.58"/>
    </edge>
    <edge id="E3" from="Node6" to="Node5" priority="-1">
        <lane id="E3_0" index="0" speed="13.89" length="87.82" shape="102.71,-41.46 14.89,-42.42"/>
        <lane id="E3_1" index="1" speed="13.89" length="87.82" shape="102.74,-44.66 14.92,-45.62"/>
        <lane id="E3_2" index="2" speed="13.89" length="87.82" shape="102.78,-47.86 14.96,-48.82"/>
    </edge>
    <edge id="E4" from="Node5" to="Node4" priority="-1">
        <lane id="E4_0" index="0" speed="13.89" length="52.92" shape="-12.38,-42.41 -65.29,-41.73"/>
        <lane id="E4_1" index="1" speed="13.89" length="52.92" shape="-12.42,-45.61 -65.33,-44.93"/>
        <lane id="E4_2" index="2" speed="13.89" length="52.92" shape="-12.46,-48.81 -65.37,-48.13"/>
    </edge>
    <edge id="E5" from="Node4" to="Node1" priority="-1">
        <lane id="E5_0" index="0" speed="13.89" length="43.53" shape="-66.87,-40.12 -66.36,3.42"/>
        <lane id="E5_1" index="1" speed="13.89" length="43.53" shape="-70.07,-40.08 -69.56,3.45"/>
        <lane id="E5_2" index="2" speed="13.89" length="43.53" shape="-73.27,-40.04 -72.76,3.49"/>
    </edge>
    <edge id="E6" from="Node3" to="J1" priority="-1">
        <lane id="E6_0" index="0" speed="13.89" length="56.22" shape="118.12,27.49 116.92,83.69"/>
        <lane id="E6_1" index="1" speed="13.89" length="56.22" shape="114.92,27.42 113.72,83.62"/>
        <lane id="E6_2" index="2" speed="13.89" length="56.22" shape="111.72,27.35 110.52,83.55"/>
    </edge>
    <edge id="E7" from="J3" to="J4" priority="-1">
        <lane id="E7_0" index="0" speed="13.89" length="19.27" shape="-37.80,67.64 -38.46,48.38"/>
    </edge>
    <edge id="E8" from="J3" to="J5" priority="-1">
        <lane id="E8_0" index="0" speed="13.89" length="18.77" shape="-31.99,73.09 -13.22,72.64"/>
    </edge>
    <edge id="E9" from="J6" to="J3" priority="-1">
        <lane id="E9_0" index="0" speed="13.89" length="15.03" shape="-37.21,95.36 -37.46,80.33"/>
    </edge>
    <edge id="Node1_2_EB" from="Node1" to="Node2" priority="-1">
        <lane id="Node1_2_EB_0" index="0" speed="13.89" length="54.76" shape="-64.73,5.00 -9.98,3.89"/>
        <lane id="Node1_2_EB_1" index="1" speed="13.89" length="54.76" shape="-64.67,8.20 -9.92,7.09"/>
        <lane id="Node1_2_EB_2" index="2" speed="13.89" length="54.76" shape="-64.60,11.40 -9.85,10.29"/>
    </edge>
    <edge id="Node1_2_WB" from="Node2" to="Node1" priority="-1">
        <lane id="Node1_2_WB_0" index="0" speed="13.89" length="54.76" shape="-9.66,19.89 -64.41,20.99"/>
        <lane id="Node1_2_WB_1" index="1" speed="13.89" length="54.76" shape="-9.72,16.69 -64.47,17.79"/>
        <lane id="Node1_2_WB_2" index="2" speed="13.89" length="54.76" shape="-9.79,13.49 -64.54,14.59"/>
    </edge>
    <edge id="Node2_3_WB" from="Node3" to="Node2" priority="-1" length="106.32" shape="110.41,13.70 95.00,13.40 23.58,11.70 4.11,11.61">
        <lane id="Node2_3_WB_0" index="0" speed="13.89" length="106.32" shape="96.64,21.43 94.83,21.40 23.47,19.70 17.91,19.67"/>
        <lane id="Node2_3_WB_1" index="1" speed="13.89" length="106.32" shape="96.70,18.23 94.90,18.20 23.51,16.50 17.98,16.47"/>
        <lane id="Node2_3_WB_2" index="2" speed="13.89" length="106.32" shape="96.76,15.03 94.97,15.00 23.56,13.30 18.04,13.27"/>
    </edge>
    <edge id="Node2_5_NB" from="Node5" to="Node2" priority="-1">
        <lane id="Node2_5_NB_0" index="0" speed="13.89" length="34.10" shape="9.49,-36.79 11.34,-2.74"/>
        <lane id="Node2_5_NB_1" index="1" speed="13.89" length="34.10" shape="6.30,-36.61 8.15,-2.56"/>
        <lane id="Node2_5_NB_2" index="2" speed="13.89" length="34.10" shape="3.10,-36.44 4.95,-2.39"/>
    </edge>
    <edge id="Node2_5_SB" from="Node2" to="Node5" priority="-1">
        <lane id="Node2_5_SB_0" index="0" speed="13.89" length="34.10" shape="-4.63,-1.87 -6.48,-35.92"/>
        <lane id="Node2_5_SB_1" index="1" speed="13.89" length="34.10" shape="-1.44,-2.04 -3.29,-36.09"/>
        <lane id="Node2_5_SB_2" index="2" speed="13.89" length="34.10" shape="1.76,-2.22 -0.09,-36.27"/>
    </edge>
    <edge id="Node2_7_NB" from="Node2" to="Node7" priority="-1">
        <lane id="Node2_7_NB_0" index="0" speed="13.89" length="53.80" shape="12.35,25.28 13.30,79.08"/>
        <lane id="Node2_7_NB_1" index="1" speed="13.89" length="53.80" shape="9.15,25.34 10.10,79.14"/>
        <lane id="Node2_7_NB_2" index="2" speed="13.89" length="53.80" shape="5.95,25.40 6.90,79.19"/>
    </edge>
    <edge id="Node2_7_SB" from="Node7" to="Node2" priority="-1">
        <lane id="Node2_7_SB_0" index="0" speed="13.89" length="53.80" shape="-2.70,79.36 -3.65,25.56"/>
        <lane id="Node2_7_SB_1" index="1" speed="13.89" length="53.80" shape="0.50,79.30 -0.45,25.51"/>
        <lane id="Node2_7_SB_2" index="2" speed="13.89" length="53.80" shape="3.70,79.25 2.75,25.45"/>
    </edge>

    <tlLogic id="J3" type="static" programID="0" offset="0">
        <phase duration="27" state="GGrrrr"/>
        <phase duration="3"  state="yyrrrr"/>
        <phase duration="27" state="rrGGrr"/>
        <phase duration="3"  state="rryyrr"/>
        <phase duration="27" state="rrrrGG"/>
        <phase duration="3"  state="rrrryy"/>
    </tlLogic>
    <tlLogic id="Node2" type="static" programID="0" offset="0">
        <phase duration="42" state="GGGGgrrrrrGGGGgrrrrr"/>
        <phase duration="3"  state="yyyyyrrrrryyyyyrrrrr"/>
        <phase duration="42" state="rrrrrGGGGgrrrrrGGGGg"/>
        <phase duration="3"  state="rrrrryyyyyrrrrryyyyy"/>
    </tlLogic>
    <tlLogic id="Node3" type="static" programID="0" offset="0">
        <phase duration="42" state="rrrrrGGGGgrrrrrGGGGg"/>
        <phase duration="3"  state="rrrrryyyyyrrrrryyyyy"/>
        <phase duration="42" state="GGGGgrrrrrGGGGgrrrrr"/>
        <phase duration="3"  state="yyyyyrrrrryyyyyrrrrr"/>
    </tlLogic>

    <junction id="J0" type="dead_end" x="202.35" y="12.74" incLanes="E0_0 E0_1 E0_2" intLanes="" shape="202.35,12.74 202.25,3.14 202.35,12.74"/>
    <junction id="J1" type="dead_end" x="108.92" y="83.52" incLanes="E6_0 E6_1 E6_2" intLanes="" shape="108.92,83.52 118.52,83.72 108.92,83.52"/>
    <junction id="J2" type="dead_end" x="-72.41" y="74.45" incLanes="" intLanes="" shape="-72.42,76.05 -72.39,72.85 -72.42,76.05 -72.39,72.85"/>
    <junction id="J3" type="traffic_light" x="-35.95" y="74.79" incLanes="E9_0 -E1_0 E1_0" intLanes=":J3_0_0 :J3_1_0 :J3_2_0 :J3_3_0 :J3_4_0 :J3_5_0" shape="-39.06,80.36 -35.86,80.30 -35.47,77.23 -34.93,76.14 -34.16,75.36 -33.17,74.87 -31.95,74.69 -32.03,71.49 -34.28,71.10 -35.09,70.56 -35.67,69.80 -36.04,68.81 -36.20,67.59 -39.40,67.70 -39.74,70.73 -40.26,71.79 -41.01,72.54 -41.99,72.98 -43.21,73.12 -43.24,76.32 -40.95,76.78 -40.14,77.35 -39.55,78.13 -39.19,79.13">
        <request index="0" response="001100" foes="111100" cont="0"/>
        <request index="1" response="001000" foes="101000" cont="0"/>
        <request index="2" response="000000" foes="010001" cont="0"/>
        <request index="3" response="000000" foes="110011" cont="0"/>
        <request index="4" response="001101" foes="001101" cont="0"/>
        <request index="5" response="001011" foes="001011" cont="0"/>
    </junction>
    <junction id="J4" type="dead_end" x="-36.86" y="48.33" incLanes="E7_0" intLanes="" shape="-40.06,48.44 -36.86,48.33"/>
    <junction id="J5" type="dead_end" x="-13.18" y="74.24" incLanes="E8_0" intLanes="" shape="-13.26,71.04 -13.18,74.24"/>
    <junction id="J6" type="dead_end" x="-35.61" y="95.33" incLanes="" intLanes="" shape="-35.61,95.33 -38.81,95.38"/>
    <junction id="Node1" type="priority" x="-74.25" y="13.19" incLanes="Node1_2_WB_0 Node1_2_WB_1 Node1_2_WB_2 E5_0 E5_1 E5_2" intLanes=":Node1_0_0 :Node1_0_1 :Node1_0_2 :Node1_3_0 :Node1_3_1 :Node1_3_2" shape="-64.38,22.59 -64.76,3.40 -83.96,3.62 -83.36,9.53 -81.69,14.33 -78.95,18.04 -75.16,20.66 -70.30,22.17">
        <request index="0" response="000000" foes="000000" cont="0"/>
        <request index="1" response="000000" foes="000000" cont="0"/>
        <request index="2" response="000000" foes="000000" cont="0"/>
        <request index="3" response="000000" foes="000000" cont="0"/>
        <request index="4" response="000000" foes="000000" cont="0"/>
        <request index="5" response="000000" foes="000000" cont="0"/>
    </junction>
    <junction id="Node2" type="traffic_light" x="4.11" y="11.61" incLanes="Node2_7_SB_0 Node2_7_SB_1 Node2_7_SB_2 Node2_3_WB_0 Node2_3_WB_1 Node2_3_WB_2 Node2_5_NB_0 Node2_5_NB_1 Node2_5_NB_2 Node1_2_EB_0 Node1_2_EB_1 Node1_2_EB_2" intLanes=":Node2_0_0 :Node2_1_0 :Node2_1_1 :Node2_1_2 :Node2_20_0 :Node2_5_0 :Node2_6_0 :Node2_6_1 :Node2_6_2 :Node2_21_0 :Node2_10_0 :Node2_11_0 :Node2_11_1 :Node2_11_2 :Node2_22_0 :Node2_15_0 :Node2_16_0 :Node2_16_1 :Node2_16_2 :Node2_23_0" shape="-5.25,25.59 13.95,25.25 14.36,23.03 14.90,22.26 15.67,21.71 16.66,21.38 17.88,21.27 18.26,2.29 15.42,1.67 14.40,0.96 13.65,-0.03 13.16,-1.29 12.94,-2.82 -6.23,-1.78 -6.56,0.45 -7.07,1.23 -7.82,1.80 -8.80,2.16 -10.01,2.29 -9.63,21.49 -7.23,21.91 -6.38,22.47 -5.77,23.27 -5.39,24.31">
        <request index="0"  response="00000000000111000000" foes="00000000000111000000" cont="0"/>
        <request index="1"  response="11111000001111000000" foes="11111100001111000000" cont="0"/>
        <request index="2"  response="11111000001111000000" foes="11111100001111000000" cont="0"/>
        <request index="3"  response="11111000001111000000" foes="11111100001111000000" cont="0"/>
        <request index="4"  response="11110011101111000000" foes="11110011101111000000" cont="1"/>
        <request index="5"  response="00000000000000000000" foes="00000011100000000000" cont="0"/>
        <request index="6"  response="00000100000000010000" foes="10000111100000011111" cont="0"/>
        <request index="7"  response="00000100000000010000" foes="10000111100000011111" cont="0"/>
        <request index="8"  response="00000100000000010000" foes="10000111100000011111" cont="0"/>
        <request index="9"  response="01110100000000010000" foes="01110111100000011110" cont="1"/>
        <request index="10" response="01110000000000000000" foes="01110000000000000000" cont="0"/>
        <request index="11" response="11110000001111100000" foes="11110000001111110000" cont="0"/>
        <request index="12" response="11110000001111100000" foes="11110000001111110000" cont="0"/>
        <request index="13" response="11110000001111100000" foes="11110000001111110000" cont="0"/>
        <request index="14" response="11110000001111001110" foes="11110000001111001110" cont="1"/>
        <request index="15" response="00000000000000000000" foes="00000000000000001110" cont="0"/>
        <request index="16" response="00000100000000010000" foes="00000111111000011110" cont="0"/>
        <request index="17" response="00000100000000010000" foes="00000111111000011110" cont="0"/>
        <request index="18" response="00000100000000010000" foes="00000111111000011110" cont="0"/>